// -*- C++ -*-
// File generated by PyFoam - sorry for the ugliness

FoamFile
{
 version 2.0;
 format ascii;
 class dictionary;
 object controlDict;
}

application reactingFoam;

startFrom startTime;

startTime 0;

stopAt endTime;

endTime 0.0001;

deltaT 1e-05;

writeControl adjustable;

writeInterval 2;

writeFormat ascii;

writePrecision 6;

timeFormat general;

runTimeModifiable yes;
adjustTimeStep yes;

maxCo 0.6;

relaxationFactors
{
  fields 0.7;
  divs 0.7;
} 	// ************************************************************************* //

