FoamFile  
{  
    version     2.0;  
    format      ascii;  
    class       dictionary;  
    object      decomposeParDict;  
}  

// Decompose the domain for parallel processing  
numberOfSubdomains  4;  
method          scotch;  

// Coefficients for domain decomposition (if applicable)  
coeffs  
{  
    n           (2 2 1);  
}  

// ************************************************************************* //