FoamFile  
{  
    version     2.0;  
    format      ascii;  
    class       dictionary;  
    object      fvSchemes;  
}  

// * * * * * * * * * * * * * * * * * * * * * * * * * * * * * * * * * * * * * //  

ddtSchemes  
{  
    default         localEuler;  
}  

gradSchemes  
{  
    default         Gauss linear;  
}  

divSchemes  
{  
    default             none;  
    div(phi,U)          Gauss limitedLinearV 1;  
    div(phi,k)          Gauss limitedLinear 1;  
    div(phi,epsilon)    Gauss limitedLinear 1;  
    div(phi,nuTilda)    Gauss limitedLinear 1;  
}  

laplacianSchemes  
{  
    default         Gauss linear corrected;  
}  

interpolationSchemes  
{  
    default         linear;  
}  

snGradSchemes  
{  
    default         orthogonal;  
}  

// * * * * * * * * * * * * * * * * * * * * * * * * * * * * * * * * * * * * * //