/*
FoamFile
{
    version     2.0;
    format      ascii;
    class       dictionary;
    object      combustionProperties;
}

// Combustion properties placeholder
// Define specific combustion parameters if necessary
