/*
FoamFile
{
    version     2.0;
    format      ascii;
    class       dictionary;
    object      reactionsGRI;
}

// * * * * * * * * * * * * * * * * * * * * * * * * * * * * * * * * * * * * //

// Reaction details (species, reaction rates, etc.) for GRI mechanisms
// User to specify according to selected chemical mechanism
