FoamFile  
{  
    version     2.0;  
    format      ascii;  
    class       dictionary;  
    object      thermophysicalProperties;  
}  
  
// * * * * * * * * * * * * * * * * * * * * * * * * * * * * * * * * * * * * //  
  
thermoType  
{  
    type            hePsiThermo;  
    mixture         reactingMixture;  
    transport       sutherland;  
    thermo          janaf;  
    energy          sensibleEnthalpy;  
    equationOfState perfectGas;  
    specie          specie;  
}  
  
// Define the inert species with its molecular weight (dimension: [1])  
inertSpecie N2;  
  
// Chemistry data file references  
chemistryReader foamChemistryReader;  
foamChemistryFile "<constant>/reactions";  
foamChemistryThermoFile "<constant>/thermo.compressibleGas";  
  
// * * * * * * * * * * * * * * * * * * * * * * * * * * * * * * * * * * * * //