/*
FoamFile
{
    version     2.0;
    format      ascii;
    class       dictionary;
    object      thermophysicalProperties;
}

// Thermophysical properties for GRI gas mixture
// Define detailed properties as needed
