FoamFile
{
    version     2.0;
    format      ascii;
    class       dictionary;
    object      zero;
}
// Add initial conditions for all necessary fields here
// Example: initialize velocity
U
{
    internalField   uniform (0 0 0);
    boundaryField
    {
        inlet
        {
            type            fixedValue;
            value           uniform (0 0 0);
        }
        outlet
        {
            type            zeroGradient;
        }
        walls
        {
            type            noSlip;
        }
        defaultFaces
        {
            type            empty;
        }
    }
}
alphat
{
    internalField   uniform 0;
    boundaryField
    {
        inlet
        {
            type            fixedValue;
            value           uniform 0;
        }
        outlet
        {
            type            zeroGradient;
        }
        walls
        {
            type            zeroGradient;
        }
        defaultFaces
        {
            type            empty;
        }
    }
}
p
{
    internalField   uniform 1e5;
    boundaryField
    {
        p
        {
            type            zeroGradient;
        }
    }
}
Ydefault
{
    internalField   uniform 0.0;
    boundaryField
    {
        inlet
        {
            type            fixedValue;
            value           uniform 0.0;
        }
        outlet
        {
            type            zeroGradient;
        }
        walls
        {
            type            zeroGradient;
        }
        defaultFaces
        {
            type            empty;
        }
    }
}
nuTilda
{
    internalField   uniform 1e-5;
    boundaryField
    {
        inlet
        {
            type            fixedValue;
            value           uniform 1e-5;
        }
        outlet
        {
            type            zeroGradient;
        }
        walls
        {
            type            zeroGradient;
        }
        defaultFaces
        {
            type            empty;
        }
    }
}