FoamFile  
{  
    version     2.0;  
    format      ascii;  
    class       dictionary;  
    object      fvSolution;  
}  
  
// * * * * * * * * * * * * * * * * * * * * * * * * * * * * * * * * * * * * * //  
  
solvers  
{  
    p  
    {  
        solver          PCG;  
        preconditioner  DIC;  
        tolerance       1e-6;  
        relTol          0;  
    }  
  
    U  
    {  
        solver          smoothSolver;  
        tolerance       1e-8;  
        relTol          0.1;  
    }  
  
    nut  
    {  
        solver          PIMPLE;  
        tolerance       1e-6;  
    }  
  
    nuTilda  
    {  
        solver          PIMPLE;  
        tolerance       1e-6;  
    }  
  
    Y  
    {  
        solver          PIMPLE;  
        tolerance       1e-6;  
    }  
  
    alphat  
    {  
        solver          PIMPLE;  
        tolerance       1e-6;  
    }  
}  
  
SIMPLE  
{  
    residualControl  
    {  
        p       0.01;  
        U       0.01;  
        k       0.01;  
        omega   0.01;  
        Y       0.01;  
        alphat  0.01;  
    }  
}  
  
PIMPLE  
{  
    nOuterCorrectors          2;  
    nCorrectors               2;  
    nNonOrthogonalCorrectors  2;  
    residualControl  
    {  
        p       0.01;  
        U       0.01;  
        k       0.01;  
        omega   0.01;  
        Y       0.01;  
        alphat  0.01;  
    }  
}  
  
// * * * * * * * * * * * * * * * * * * * * * * * * * * * * * * * * * * * * * //