{
    FoamFile
    {
        version     2.0;
        format      ascii;
        class       dictionary;
        object      transportProperties;
    }
    nu            nu [0 2 -1 0 0 0 0] 1.5e-5;
    nuEff         nuEff [0 2 -1 0 0 0 0] 0;
}