FoamFile
{
    version     2.0;
    format      ascii;
    class       fvSolution;
    object      fvSolution;
}

solvers
{
    p
    {
        solver          GAMG;
        tolerance       1e-6;
        relTol          0.1;
    }
    U
    {
        solver          smoothSolver;
        tolerance       1e-5;
        relTol          0.1;
    }
    nut
    {
        solver          smoothSolver;
        tolerance       1e-5;
        relTol          0.1;
    }
    Y
    {
        solver          smoothSolver;
        tolerance       1e-6;
        relTol          0.1;
    }
    alphat
    {
        solver          smoothSolver;
        tolerance       1e-6;
        relTol          0.1;
    }
}

SIMPLE
{
    nNonOrthogonalCorrectors 2;
}

PISO
{
    nCorrectors 2;
    nNonOrthogonalCorrectors 2;
}
