/*--------------------------------*- C++ -*----------------------------------*
| =========                 |
| \      /  F ield         | OpenFOAM: The OpenFOAM Foundation |
|  \    /   O peration     | reactingFoam |
|   \  /    A nd           |
|    \/     M anipulation  |
\*---------------------------------------------------------------------------*/
FoamFile
{
    version     2.0;
    format      ascii;
    class       chemistryProperties;
    object      chemistryProperties;
}

// Placeholder: define reactions or molecule interactions if needed. For simple air-NH3 mixing, may be empty.
