/*--------------------------------*- C++ -*----------------------------------*
| =========                 |
| \      /  F ield         | OpenFOAM: The OpenFOAM Foundation |
|  \    /   O peration     | reactingFoam |
|   \  /    A nd           |
|    \/     M anipulation  |
\*---------------------------------------------------------------------------*/
FoamFile
{
    version     2.0;
    format      ascii;
    class       physicochemicalProperties;
    object      transportProperties;
}

air
{
    Viscosity       [ 0 2 -1 0 0 0 0 ] 1.847e-5; // Pa.s
    PrandtlNumber   0.7;
}

NH3
{
    Viscosity       [ 0 2 -1 0 0 0 0 ] 8.3e-6; // Pa.s
    PrandtlNumber   0.8;
}