FoamFile
{
    version     2.0;
    format      ascii;
    class       volScalarField;
    object      alphat;
}

dimensions      [0 2 -1 0 0 0 0];
internalField   uniform 1.0;
boundaryField
{
    walls
    {
        type            fixedValue;
        value           uniform 1.0;
    }
    velocity_inlet_air
    {
        type            fixedValue;
        value           uniform 1.0;
    }
    velocity_inlet_nh3
    {
        type            fixedValue;
        value           uniform 1.0;
    }
    pressure_outlet
    {
        type            zeroGradient;
    }
}
