FoamFile
{
    version     2.0;
    format      ascii;
    class       volScalarField;
    object      T;
}

dimensions      [0 0 0 1 0 0 0];
internalField   uniform 300;
boundaryField
{
    walls
    {
        type            fixedValue;
        value           uniform 300;
    }
    velocity_inlet_air
    {
        type            fixedValue;
        value           uniform 300;
    }
    velocity_inlet_nh3
    {
        type            fixedValue;
        value           uniform 300;
    }
    pressure_outlet
    {
        type            zeroGradient;
    }
}
