/*
FoamFile
{
    version     2.0;
    format      ascii;
    class       volVectorField;
    object      U;
}

// * * * * * * * * * * * * * * * * * * * * * * * * * * * * * * * * * * * * //

dimensions      [0 1 -1 0 0 0 0];
internalField   uniform (23.98 0 0);
boundaryField
{
    velocity_inlet_air
    {
        type            fixedValue;
        value           uniform (23.98 0 0);
    }
    velocity_inlet_nh3
    {
        type            fixedValue;
        value           uniform (23.98 0 0);
    }
    pressure_outlet
    {
        type            zeroGradient;
    }
    walls
    {
        type            noSlip;
    }
}
