FoamFile
{
    version     2.0;
    format      ascii;
    class       volScalarField;
    object      Ydefault;
}

internalField   uniform 0;
boundaryField
{
    walls
    {
        type            fixedValue;
        value           uniform 0;
    }
    velocity_inlet_air
    {
        type            fixedValue;
        value           uniform 0;
    }
    velocity_inlet_nh3
    {
        type            fixedValue;
        value           uniform 0;
    }
    pressure_outlet
    {
        type            zeroGradient;
    }
}
