FoamFile
{
    version     2.0;
    format      ascii;
    class       dictionary;
    object      combustionProperties;
}

// Define combustion-related properties if needed.
// For non-reacting mixture, this can be left empty or omitted.
