FoamFile
{
    version     2.0;
    format      ascii;
    class       reactionThermoModel;
    object      reactions;
}

reactionMechanism
{
    reactions       reactions;
}

reaction
{
    // reactions details omitted for brevity
}
