FoamFile
{
    version     2.0;
    format      ascii;
    class       thermophysicalModel;
    object      thermo.compressibleGasGRI;
}

materialName    "CompressibleGasGRI";
transportModel  "FluidThermo";
TRef            300;
PRef            101325;
// Add GRI-specific thermophysical data here
