FoamFile
{
    version     2.0;
    format      ascii;
    class       thermophysicalModel;
    object      thermo.compressibleGas;
}

materialName    "CompressibleGas";
transportModel  "FluidThermo";
TRef            300;
PRef            101325;

// Additional properties such as specific heats, gas constant, etc., should be added as per model requirements.
