/*--------------------------------*- C++ -*----------------------------------*
| =========                 |
| \      /  F ield         | OpenFOAM: The OpenFOAM Foundation |
|  \    /   O peration     | reactingFoam |
|   \  /    A nd           |
|    \/     M anipulation  |
\*---------------------------------------------------------------------------*/
FoamFile
{
    version     2.0;
    format      ascii;
    class       volScalarField;
    location    "0";
    object      nuTilda;
}

dimensions      [0 2 -1 0 0 0 0];
internalField   uniform 0.0;
boundaryField
{
    walls
    {
        type zeroGradient;
    }
}