/*--------------------------------*- C++ -*----------------------------------*
| =========                 |
| \      /  F ield         | OpenFOAM: The OpenFOAM Foundation |
|  \    /   O peration     | reactingFoam |
|   \  /    A nd           |
|    \/     M anipulation  |
\*---------------------------------------------------------------------------*/
FoamFile
{
    version     2.0;
    format      ascii;
    class       volScalarField;
    location    "0";
    object      p;
}

dimensions      [1 -1 -2 0 0 0 0];
internalField   uniform 101325;
boundaryField
{
    pressure_outlet
    {
        type zeroGradient;
    }
    walls
    {
        type zeroGradient;
    }
}