/*
FoamFile
{
    version     2.0;
    format      ascii;
    class       volScalarField;
    object      alphat;
}

// * * * * * * * * * * * * * * * * * * * * * * * * * * * * * * * * * * * * //

// Approximate initial thermal diffusivity
// User to specify boundary values accordingly
