{
    FoamFile {
        version     2.0;
        format      ascii;
        class       volScalarField;
        object      p;
    }

    dimensions      [1 -1 -2 0 0 0 0];
    internalField   uniform 0;
    boundaryField {
        "pressure_outlet" {
            type zeroGradient;
        }
        "walls" {
            type zeroGradient;
        }
        "a" {
            type zeroGradient;
        }
        "b" {
            type zeroGradient;
        }
    }
}