/*
FoamFile
{
    version     2.0;
    format      ascii;
    class       volVectorField;
    object      U;
}

// * * * * * * * * * * * * * * * * * * * * * * * * * * * * * * * * * * * * //

vectorFieldAddressing
{

// Initialize with zero velocity
// User must set actual inlet velocity in boundary conditions
// Example: [U_inlet, 0, 0] for x-direction

// Boundary conditions will override this initial value
}
