/0/xx
{
    FoamFile
    {
        version     2.0;
        format      ascii;
        class       dict;
        object      xx;
    }
    // Add your initial condition settings here
    // Example: initialize xx to zero
    internalField   uniform 0;
    boundaryField
    {
        // Define boundary conditions for xx
        // Example:
        // inlet
        // {
        //     type            fixedValue;
        //     value           uniform 0;
        // }
    }
}