{
    FoamFile {
        version     2.0;
        format      ascii;
        class       volScalarField;
        object      Ydefault;
    }

    dimensions      [0 0 0 0 0 0 0];
    internalField   uniform 0.0;
    boundaryField {
        "walls" {
            type zeroGradient;
        }
        defaultFaces {
            type zeroGradient;
        }
    }
}