FoamFile
{
  version     2.0;
  format      ascii;
  class       dictionary;
  object      combustionProperties;
}

// Specify combustion model properties here if needed