FoamFile
{
  version     2.0;
  format      ascii;
  class       reactionReactions;
  object      reactions;
}

reaction
(
  {
    index       1;
    reactants   {N2 1; O2 1;};
    products    {N2 2;};
    reactionRate  0.1;
  }
);