FoamFile
{
  version     2.0;
  format      ascii;
  class       dictionary;
  object      transportProperties;
}

nu              nu [0 0 0 0 0 0 0] 1e-6;

// Assuming constant turbulent viscosity for initial setup
nuTilda       [0 2 0 0 0 0 0] 0.05;